/*--------------------------------*- C++ -*----------------------------------*\
| =========                 |                                                 |
| \\      /  F ield         | foam-extend: Open Source CFD                    |
|  \\    /   O peration     | Version:     3.1                                |
|   \\  /    A nd           | Web:         http://www.extend-project.de       |
|    \\/     M anipulation  |                                                 |
\*---------------------------------------------------------------------------*/
FoamFile
{
    version     2.0;
    format      ascii;
    class       polyBoundaryMesh;
    location    "constant/polyMesh";
    object      boundary;
}
// * * * * * * * * * * * * * * * * * * * * * * * * * * * * * * * * * * * * * //

3
(
    wall_l
    {
        type            patch;
        nFaces          1;
        startFace       399;
    }
    wall_r
    {
        type            patch;
        nFaces          1;
        startFace       400;
    }
    wall_empty
    {
        type            empty;
        nFaces          1600;
        startFace       401;
    }
)

// ************************************************************************* //
