/*--------------------------------*- C++ -*----------------------------------*\
| =========                 |                                                 |
| \\      /  F ield         | OpenFOAM: The Open Source CFD Toolbox           |
|  \\    /   O peration     | Version:  2.1.x                                 |
|   \\  /    A nd           | Web:      www.OpenFOAM.org                      |
|    \\/     M anipulation  |                                                 |
\*---------------------------------------------------------------------------*/
FoamFile
{
    version     2.0;
    format      ascii;
    class       dictionary;
    location    "system";
    object      fvSolution;
}
// * * * * * * * * * * * * * * * * * * * * * * * * * * * * * * * * * * * * * //

solvers
{
	potProton
    {
		solver			PCG;
		preconditioner	FDIC;
		tolerance       1e-150;
	    relTol          0;
		maxIter			1;
    }
	T
    {
		solver			PCG;
		preconditioner	FDIC;
		tolerance       1e-150;
	    relTol          0;
		maxIter			1;
    }

}

SIMPLE
{
    nNonOrthogonalCorrectors 0;
}


relaxationFactors
{
	fields
	{
	}
	equations
	{
	}
}



// ************************************************************************* //
