/*--------------------------------*- C++ -*----------------------------------*\
| =========                 |                                                 |
| \\      /  F ield         | OpenFOAM: The Open Source CFD Toolbox           |
|  \\    /   O peration     | Version:  2.1.x                                 |
|   \\  /    A nd           | Web:      www.OpenFOAM.org                      |
|    \\/     M anipulation  |                                                 |
\*---------------------------------------------------------------------------*/
FoamFile
{
    version     2.0;
    format      ascii;
    class       dictionary;
    object      blockMeshDict;
}
// * * * * * * * * * * * * * * * * * * * * * * * * * * * * * * * * * * * * * //
ratio_right 80.;
ratio_left 	0.0325;

convertToMeters 1.e-6;
vertices
(
/**** Anode PTL Begins ****/
// Block number 1 
//- Anode PTL (x1, x2, x3) --> (X,Y,Z) --> (Across MEA, Through MEA, Down the Channel)
	(0 0 0) 			// 0
	(1.e6 0 0) 			// 1
	(1.e6 150 0) 		// 2
	(0 150 0)			// 3
	(0 0 1.e6)			// 4
	(1.e6 0 1.e6)			// 5
	(1.e6 150 1.e6)		// 6
	(0 150 1.e6)			// 7
/**** Anode PTL Ends ****/ 

/**** Anode CL Begins ****/
// Block number 4 
//- Anode CL left (x1, x2, x3) --> (X,Y,Z) --> (Across MEA, Through MEA, Down the Channel)
	(1.e6 153 0)			// 8
	(0 153 0) 			// 9
	(1.e6 153 1.e6)		// 10
	(0 153 1.e6)			// 11
/**** Anode CL Ends ****/

/**** Polymer Membrane Begins ****/
		// Part 1 //
// Block number 7 
//- Polymer Membrane left (x1, x2, x3) --> (X,Y,Z) --> (Across MEA, Through MEA, Down the Channel)
	(1.e6 165.5 0)			// 12
	(0 165.5 0)			// 13
	(1.e6 165.5 1.e6)		// 14
	(0 165.5 1.e6)			// 15
		// Part 2 //
// Block number 10
//- Polymer Membrane left (x1, x2, x3) --> (X,Y,Z) --> (Across MEA, Through MEA, Down the Channel)
	(1.e6 178 0)			// 16
	(0 178 0)			// 17
	(1.e6 178 1.e6)		// 18
	(0 178 1.e6)			// 19
/**** Polymer Membrane Ends ****/

/**** Cathode CL Begins ****/
// Block number 13 
//- Cathode CL left (x1, x2, x3) --> (X,Y,Z) --> (Across MEA, Through MEA, Down the Channel)
	(1.e6 190.1 0)			// 20
	(0 190.1 0)			// 21
	(1.e6 190.1 1.e6)		// 22
	(0 190.1 1.e6)			// 23
/**** Cathode CL Ends ****/

/**** Cathode PTL Begins ****/
// Block number 16 
//- Cathode GDL left (x1, x2, x3) --> (X,Y,Z) --> (Across MEA, Through MEA, Down the Channel)
	(1.e6 340.1 0)			// 24
	(0 340.1 0)			// 25
	(1.e6 340.1 1.e6)		// 26
	(0 340.1 1.e6)			// 27
);

blocks
(
	// Note that the order of connections is important in that the entry 1 to 2 is X, 2 to 3 is Y, 1 to 5 is Z 

	// Anode PTL
	hex (0 1 2 3 4 5 6 7) APTL (1 500 1) simpleGrading (1 1 1)
	// Anode CL
	hex (3 2 8 9 7 6 10 11) ACL (1 50 1) simpleGrading (1 1 1)
	// Polymer Membrane
	hex (9 8 12 13 11 10 14 15) PMEM (1 100 1) simpleGrading (1 1 1)
	hex (13 12 16 17 15 14 18 19) PMEM (1 100 1) simpleGrading (1 1 1)
	// Cathode CL
	hex (17 16 20 21 19 18 22 23) CCL (1 250 1) simpleGrading (1 1 1)
	// Cathode PTL
	hex (21 20 24 25 23 22 26 27) CPTL (1 500 1) simpleGrading (1 1 1)
);

edges
(
);

boundary
(
	MEALeft
	{
       	type empty;
	    faces
		(
			(0 4 7 3) 		// Anode PTL left wall	
			(3 7 11 9) 		// Anode CL left wall
			(9 11 15 13)	// Polymer Membrane left wall part 1
			(13 15 19 17)	// Polymer Membrane left wall part 2
			(17 19 23 21)	// Cathode CL left wall
			(21 23 27 25)	// Cathode PTL left wall
		);
	}

    
	MEARight
	{
		type empty;
		faces
		(
			(1 5 6 2) 		// Anode PTL right wall
	        (2 6 10 8) 		// Anode CL right wall
			(8 10 14 12)	// Polymer Membrane right wall part 1
			(12 14 18 16)	// Polymer Membrane right wall part 2
			(16 18 22 20)	// Cathode CL right wall
			(20 22 26 24)	// Cathode PTL right wall
		);
	}

	anodeChannel
	{
		type patch;
		faces
		(
			(0 4 5 1)
		);
	}

	cathodeChannel
	{
		type patch;
		faces
		(
			(25 27 26 24)
		);
	}

	frontAndBack
	{
	        type empty;
	        faces
	        (
				// Back Faces
					// Anode PTL
					(0 1 2 3)
					// Anode CL
					(3 2 8 9)
					// Polymer Membrane
					// part 1
					(9 8 12 13)
					// part 2
					(13 12 16 17)
					// Cathode CL
					(17 16 20 21)
					// Cathode PTL
					(21 20 24 25)
				// Front Faces
					// Anode PTL
					(4 5 6 7)
					// Anode CL
					(7 6 10 11)
					// Polymer Membrane
					// part 1
					(11 10 14 15)
					// part 2
					(15 14 18 19)
					// Cathode CL
					(19 18 22 23)
					// Cathode PTL
					(23 22 26 27)
	        );
	}
);

mergePatchPairs
(
);

// ************************************************************************* //
